Program Version,EnergyPlus, Version 25.1.0-68a4a7c774, YMD=2025.11.25 19:25
