Program Version,EnergyPlus, Version 25.1.0-68a4a7c774, YMD=2025.12.14 08:31,
   ** Warning ** ProcessScheduleInput: Schedule:Compact = PMV_H_SP_THERMAL ZONE 2
   **   ~~~   ** Schedule Type Limits Name = ANY NUMBER, item not found.
   **   ~~~   ** Schedule will not be validated.
   ** Warning ** ProcessScheduleInput: Schedule:Compact = PMV_H_SP_THERMAL ZONE 1
   **   ~~~   ** Schedule Type Limits Name = ANY NUMBER, item not found.
   **   ~~~   ** Schedule will not be validated.
   ** Warning ** ProcessScheduleInput: Schedule:Compact = PMV_C_SP_THERMAL ZONE 2
   **   ~~~   ** Schedule Type Limits Name = ANY NUMBER, item not found.
   **   ~~~   ** Schedule will not be validated.
   ** Warning ** ProcessScheduleInput: Schedule:Compact = PMV_C_SP_THERMAL ZONE 1
   **   ~~~   ** Schedule Type Limits Name = ANY NUMBER, item not found.
   **   ~~~   ** Schedule will not be validated.
   ** Warning ** ProcessScheduleInput: Schedule:Compact = THERMAL COMFORT CONTROL TYPE SCHEDULE NAME THERMAL ZONE 2
   **   ~~~   ** Schedule Type Limits Name = ANY NUMBER, item not found.
   **   ~~~   ** Schedule will not be validated.
   ** Warning ** ProcessScheduleInput: Schedule:Compact = THERMAL COMFORT CONTROL TYPE SCHEDULE NAME THERMAL ZONE 1
   **   ~~~   ** Schedule Type Limits Name = ANY NUMBER, item not found.
   **   ~~~   ** Schedule will not be validated.
   ************* Beginning Zone Sizing Calculations
   ** Warning ** GetHTSurfaceData: Surfaces with interface to Ground found but no "Ground Temperatures" were input.
   **   ~~~   ** Found first in surface=FACE 0
   **   ~~~   ** Defaults, constant throughout the year of (18.0) will be used.
   ** Warning ** CalculateZoneVolume: 1 zone is not fully enclosed. For more details use:  Output:Diagnostics,DisplayExtrawarnings; 
   ** Warning ** CheckUsedConstructions: There are 5 nominally unused constructions in input.
   **   ~~~   ** For explicit details on each unused construction, use Output:Diagnostics,DisplayExtraWarnings;
   ** Severe  ** EnergyManagementSystem:Sensor="PMV_SPACE_1___1_189.1_2009___OFFICE___OPENOFFICE___CZ4_8_PEOPLE", Invalid variable name entered.
   **   ~~~   ** ...Name; Names used as EMS variables cannot contain "." characters.
   ** Severe  ** EnergyManagementSystem:Sensor="PEOPLE_OCCUPANT_COUNT_SPACE_1___1_189.1_2009___OFFICE___OPENOFFICE___CZ4_8_PEOPLE", Invalid variable name entered.
   **   ~~~   ** ...Name; Names used as EMS variables cannot contain "." characters.
   ** Severe  ** EnergyManagementSystem:Sensor="PMV_SPACE_2___1_189.1_2009___OFFICE___OPENOFFICE___CZ4_8_PEOPLE", Invalid variable name entered.
   **   ~~~   ** ...Name; Names used as EMS variables cannot contain "." characters.
   ** Severe  ** EnergyManagementSystem:Sensor="PEOPLE_OCCUPANT_COUNT_SPACE_2___1_189.1_2009___OFFICE___OPENOFFICE___CZ4_8_PEOPLE", Invalid variable name entered.
   **   ~~~   ** ...Name; Names used as EMS variables cannot contain "." characters.
   ** Severe  ** EnergyManagementSystem:Actuator="PMV_H_SP_ACT_SPACE_1___1_189.1_2009___OFFICE___OPENOFFICE___CZ4_8_PEOPLE", Invalid variable name entered.
   **   ~~~   ** ...Name; Names used as EMS variables cannot contain "." characters.
   ** Severe  ** EnergyManagementSystem:Actuator="PMV_C_SP_ACT_SPACE_1___1_189.1_2009___OFFICE___OPENOFFICE___CZ4_8_PEOPLE", Invalid variable name entered.
   **   ~~~   ** ...Name; Names used as EMS variables cannot contain "." characters.
   ** Severe  ** EnergyManagementSystem:Actuator="PMV_H_SP_ACT_SPACE_2___1_189.1_2009___OFFICE___OPENOFFICE___CZ4_8_PEOPLE", Invalid variable name entered.
   **   ~~~   ** ...Name; Names used as EMS variables cannot contain "." characters.
   ** Severe  ** EnergyManagementSystem:Actuator="PMV_C_SP_ACT_SPACE_2___1_189.1_2009___OFFICE___OPENOFFICE___CZ4_8_PEOPLE", Invalid variable name entered.
   **   ~~~   ** ...Name; Names used as EMS variables cannot contain "." characters.
   ** Severe  ** EnergyManagementSystem:GlobalVariable="TOLERANCE_COOLING_SP_SPACE_1___1_189.1_2009___OFFICE___OPENOFFICE___CZ4_8_PEOPLE", Invalid variable name entered.
   **   ~~~   ** ...Erl Variable Name; Names used as EMS variables cannot contain "." characters.
   ** Severe  ** EnergyManagementSystem:GlobalVariable="TOLERANCE_COOLING_SP_SPACE_2___1_189.1_2009___OFFICE___OPENOFFICE___CZ4_8_PEOPLE", Invalid variable name entered.
   **   ~~~   ** ...Erl Variable Name; Names used as EMS variables cannot contain "." characters.
   ** Severe  ** EnergyManagementSystem:GlobalVariable="TOLERANCE_COOLING_SP_COOLING_SEASON_SPACE_1___1_189.1_2009___OFFICE___OPENOFFICE___CZ4_8_PEOPLE", Invalid variable name entered.
   **   ~~~   ** ...Erl Variable Name; Names used as EMS variables cannot contain "." characters.
   ** Severe  ** EnergyManagementSystem:GlobalVariable="TOLERANCE_COOLING_SP_COOLING_SEASON_SPACE_2___1_189.1_2009___OFFICE___OPENOFFICE___CZ4_8_PEOPLE", Invalid variable name entered.
   **   ~~~   ** ...Erl Variable Name; Names used as EMS variables cannot contain "." characters.
   ** Severe  ** EnergyManagementSystem:GlobalVariable="TOLERANCE_COOLING_SP_HEATING_SEASON_SPACE_1___1_189.1_2009___OFFICE___OPENOFFICE___CZ4_8_PEOPLE", Invalid variable name entered.
   **   ~~~   ** ...Erl Variable Name; Names used as EMS variables cannot contain "." characters.
   ** Severe  ** EnergyManagementSystem:GlobalVariable="TOLERANCE_COOLING_SP_HEATING_SEASON_SPACE_2___1_189.1_2009___OFFICE___OPENOFFICE___CZ4_8_PEOPLE", Invalid variable name entered.
   **   ~~~   ** ...Erl Variable Name; Names used as EMS variables cannot contain "." characters.
   ** Severe  ** EnergyManagementSystem:GlobalVariable="TOLERANCE_HEATING_SP_SPACE_1___1_189.1_2009___OFFICE___OPENOFFICE___CZ4_8_PEOPLE", Invalid variable name entered.
   **   ~~~   ** ...Erl Variable Name; Names used as EMS variables cannot contain "." characters.
   ** Severe  ** EnergyManagementSystem:GlobalVariable="TOLERANCE_HEATING_SP_SPACE_2___1_189.1_2009___OFFICE___OPENOFFICE___CZ4_8_PEOPLE", Invalid variable name entered.
   **   ~~~   ** ...Erl Variable Name; Names used as EMS variables cannot contain "." characters.
   ** Severe  ** EnergyManagementSystem:GlobalVariable="TOLERANCE_HEATING_SP_COOLING_SEASON_SPACE_1___1_189.1_2009___OFFICE___OPENOFFICE___CZ4_8_PEOPLE", Invalid variable name entered.
   **   ~~~   ** ...Erl Variable Name; Names used as EMS variables cannot contain "." characters.
   ** Severe  ** EnergyManagementSystem:GlobalVariable="TOLERANCE_HEATING_SP_COOLING_SEASON_SPACE_2___1_189.1_2009___OFFICE___OPENOFFICE___CZ4_8_PEOPLE", Invalid variable name entered.
   **   ~~~   ** ...Erl Variable Name; Names used as EMS variables cannot contain "." characters.
   ** Severe  ** EnergyManagementSystem:GlobalVariable="TOLERANCE_HEATING_SP_HEATING_SEASON_SPACE_1___1_189.1_2009___OFFICE___OPENOFFICE___CZ4_8_PEOPLE", Invalid variable name entered.
   **   ~~~   ** ...Erl Variable Name; Names used as EMS variables cannot contain "." characters.
   ** Severe  ** EnergyManagementSystem:GlobalVariable="TOLERANCE_HEATING_SP_HEATING_SEASON_SPACE_2___1_189.1_2009___OFFICE___OPENOFFICE___CZ4_8_PEOPLE", Invalid variable name entered.
   **   ~~~   ** ...Erl Variable Name; Names used as EMS variables cannot contain "." characters.
   ** Severe  ** EnergyManagementSystem:GlobalVariable="ADAP_COEFF_SPACE_1___1_189.1_2009___OFFICE___OPENOFFICE___CZ4_8_PEOPLE", Invalid variable name entered.
   **   ~~~   ** ...Erl Variable Name; Names used as EMS variables cannot contain "." characters.
   ** Severe  ** EnergyManagementSystem:GlobalVariable="ADAP_COEFF_SPACE_2___1_189.1_2009___OFFICE___OPENOFFICE___CZ4_8_PEOPLE", Invalid variable name entered.
   **   ~~~   ** ...Erl Variable Name; Names used as EMS variables cannot contain "." characters.
   ** Severe  ** EnergyManagementSystem:GlobalVariable="ADAP_COEFF_HEATING_SPACE_1___1_189.1_2009___OFFICE___OPENOFFICE___CZ4_8_PEOPLE", Invalid variable name entered.
   **   ~~~   ** ...Erl Variable Name; Names used as EMS variables cannot contain "." characters.
   ** Severe  ** EnergyManagementSystem:GlobalVariable="ADAP_COEFF_HEATING_SPACE_2___1_189.1_2009___OFFICE___OPENOFFICE___CZ4_8_PEOPLE", Invalid variable name entered.
   **   ~~~   ** ...Erl Variable Name; Names used as EMS variables cannot contain "." characters.
   ** Severe  ** EnergyManagementSystem:GlobalVariable="ADAP_COEFF_COOLING_SPACE_1___1_189.1_2009___OFFICE___OPENOFFICE___CZ4_8_PEOPLE", Invalid variable name entered.
   **   ~~~   ** ...Erl Variable Name; Names used as EMS variables cannot contain "." characters.
   ** Severe  ** EnergyManagementSystem:GlobalVariable="ADAP_COEFF_COOLING_SPACE_2___1_189.1_2009___OFFICE___OPENOFFICE___CZ4_8_PEOPLE", Invalid variable name entered.
   **   ~~~   ** ...Erl Variable Name; Names used as EMS variables cannot contain "." characters.
   ** Severe  ** EnergyManagementSystem:GlobalVariable="PMV_HEATING_SP_SPACE_1___1_189.1_2009___OFFICE___OPENOFFICE___CZ4_8_PEOPLE", Invalid variable name entered.
   **   ~~~   ** ...Erl Variable Name; Names used as EMS variables cannot contain "." characters.
   ** Severe  ** EnergyManagementSystem:GlobalVariable="PMV_HEATING_SP_SPACE_2___1_189.1_2009___OFFICE___OPENOFFICE___CZ4_8_PEOPLE", Invalid variable name entered.
   **   ~~~   ** ...Erl Variable Name; Names used as EMS variables cannot contain "." characters.
   ** Severe  ** EnergyManagementSystem:GlobalVariable="PMV_COOLING_SP_SPACE_1___1_189.1_2009___OFFICE___OPENOFFICE___CZ4_8_PEOPLE", Invalid variable name entered.
   **   ~~~   ** ...Erl Variable Name; Names used as EMS variables cannot contain "." characters.
   ** Severe  ** EnergyManagementSystem:GlobalVariable="PMV_COOLING_SP_SPACE_2___1_189.1_2009___OFFICE___OPENOFFICE___CZ4_8_PEOPLE", Invalid variable name entered.
   **   ~~~   ** ...Erl Variable Name; Names used as EMS variables cannot contain "." characters.
   ** Severe  ** EnergyManagementSystem:GlobalVariable="APMV_SPACE_1___1_189.1_2009___OFFICE___OPENOFFICE___CZ4_8_PEOPLE", Invalid variable name entered.
   **   ~~~   ** ...Erl Variable Name; Names used as EMS variables cannot contain "." characters.
   ** Severe  ** EnergyManagementSystem:GlobalVariable="APMV_SPACE_2___1_189.1_2009___OFFICE___OPENOFFICE___CZ4_8_PEOPLE", Invalid variable name entered.
   **   ~~~   ** ...Erl Variable Name; Names used as EMS variables cannot contain "." characters.
   ** Severe  ** EnergyManagementSystem:GlobalVariable="COMFHOUR_SPACE_1___1_189.1_2009___OFFICE___OPENOFFICE___CZ4_8_PEOPLE", Invalid variable name entered.
   **   ~~~   ** ...Erl Variable Name; Names used as EMS variables cannot contain "." characters.
   ** Severe  ** EnergyManagementSystem:GlobalVariable="COMFHOUR_SPACE_2___1_189.1_2009___OFFICE___OPENOFFICE___CZ4_8_PEOPLE", Invalid variable name entered.
   **   ~~~   ** ...Erl Variable Name; Names used as EMS variables cannot contain "." characters.
   ** Severe  ** EnergyManagementSystem:GlobalVariable="DISCOMFHOUR_SPACE_1___1_189.1_2009___OFFICE___OPENOFFICE___CZ4_8_PEOPLE", Invalid variable name entered.
   **   ~~~   ** ...Erl Variable Name; Names used as EMS variables cannot contain "." characters.
   ** Severe  ** EnergyManagementSystem:GlobalVariable="DISCOMFHOUR_SPACE_2___1_189.1_2009___OFFICE___OPENOFFICE___CZ4_8_PEOPLE", Invalid variable name entered.
   **   ~~~   ** ...Erl Variable Name; Names used as EMS variables cannot contain "." characters.
   ** Severe  ** EnergyManagementSystem:GlobalVariable="DISCOMFHOUR_HEAT_SPACE_1___1_189.1_2009___OFFICE___OPENOFFICE___CZ4_8_PEOPLE", Invalid variable name entered.
   **   ~~~   ** ...Erl Variable Name; Names used as EMS variables cannot contain "." characters.
   ** Severe  ** EnergyManagementSystem:GlobalVariable="DISCOMFHOUR_HEAT_SPACE_2___1_189.1_2009___OFFICE___OPENOFFICE___CZ4_8_PEOPLE", Invalid variable name entered.
   **   ~~~   ** ...Erl Variable Name; Names used as EMS variables cannot contain "." characters.
   ** Severe  ** EnergyManagementSystem:GlobalVariable="DISCOMFHOUR_COLD_SPACE_1___1_189.1_2009___OFFICE___OPENOFFICE___CZ4_8_PEOPLE", Invalid variable name entered.
   **   ~~~   ** ...Erl Variable Name; Names used as EMS variables cannot contain "." characters.
   ** Severe  ** EnergyManagementSystem:GlobalVariable="DISCOMFHOUR_COLD_SPACE_2___1_189.1_2009___OFFICE___OPENOFFICE___CZ4_8_PEOPLE", Invalid variable name entered.
   **   ~~~   ** ...Erl Variable Name; Names used as EMS variables cannot contain "." characters.
   ** Severe  ** EnergyManagementSystem:GlobalVariable="OCCUPIED_HOUR_SPACE_1___1_189.1_2009___OFFICE___OPENOFFICE___CZ4_8_PEOPLE", Invalid variable name entered.
   **   ~~~   ** ...Erl Variable Name; Names used as EMS variables cannot contain "." characters.
   ** Severe  ** EnergyManagementSystem:GlobalVariable="OCCUPIED_HOUR_SPACE_2___1_189.1_2009___OFFICE___OPENOFFICE___CZ4_8_PEOPLE", Invalid variable name entered.
   **   ~~~   ** ...Erl Variable Name; Names used as EMS variables cannot contain "." characters.
   ** Severe  ** EnergyManagementSystem:GlobalVariable="APMV_H_SP_SPACE_1___1_189.1_2009___OFFICE___OPENOFFICE___CZ4_8_PEOPLE", Invalid variable name entered.
   **   ~~~   ** ...Erl Variable Name; Names used as EMS variables cannot contain "." characters.
   ** Severe  ** EnergyManagementSystem:GlobalVariable="APMV_H_SP_SPACE_2___1_189.1_2009___OFFICE___OPENOFFICE___CZ4_8_PEOPLE", Invalid variable name entered.
   **   ~~~   ** ...Erl Variable Name; Names used as EMS variables cannot contain "." characters.
   ** Severe  ** EnergyManagementSystem:GlobalVariable="APMV_C_SP_SPACE_1___1_189.1_2009___OFFICE___OPENOFFICE___CZ4_8_PEOPLE", Invalid variable name entered.
   **   ~~~   ** ...Erl Variable Name; Names used as EMS variables cannot contain "." characters.
   ** Severe  ** EnergyManagementSystem:GlobalVariable="APMV_C_SP_SPACE_2___1_189.1_2009___OFFICE___OPENOFFICE___CZ4_8_PEOPLE", Invalid variable name entered.
   **   ~~~   ** ...Erl Variable Name; Names used as EMS variables cannot contain "." characters.
   ** Severe  ** EnergyManagementSystem:GlobalVariable="APMV_H_SP_NOTOL_SPACE_1___1_189.1_2009___OFFICE___OPENOFFICE___CZ4_8_PEOPLE", Invalid variable name entered.
   **   ~~~   ** ...Erl Variable Name; Names used as EMS variables cannot contain "." characters.
   ** Severe  ** EnergyManagementSystem:GlobalVariable="APMV_H_SP_NOTOL_SPACE_2___1_189.1_2009___OFFICE___OPENOFFICE___CZ4_8_PEOPLE", Invalid variable name entered.
   **   ~~~   ** ...Erl Variable Name; Names used as EMS variables cannot contain "." characters.
   ** Severe  ** EnergyManagementSystem:GlobalVariable="APMV_C_SP_NOTOL_SPACE_1___1_189.1_2009___OFFICE___OPENOFFICE___CZ4_8_PEOPLE", Invalid variable name entered.
   **   ~~~   ** ...Erl Variable Name; Names used as EMS variables cannot contain "." characters.
   ** Severe  ** EnergyManagementSystem:GlobalVariable="APMV_C_SP_NOTOL_SPACE_2___1_189.1_2009___OFFICE___OPENOFFICE___CZ4_8_PEOPLE", Invalid variable name entered.
   **   ~~~   ** ...Erl Variable Name; Names used as EMS variables cannot contain "." characters.
   **  Fatal  ** Errors found in getting EMS Runtime Language input. Preceding condition causes termination.
   ...Summary of Errors that led to program termination:
   ..... Reference severe error count=50
   ..... Last severe error=EnergyManagementSystem:GlobalVariable="APMV_C_SP_NOTOL_SPACE_2___1_189.1_2009___OFFICE___OPENOFFICE___CZ4_8_PEOPLE", Invalid variable name entered.
   ************* Warning:  Node connection errors not checked - most system input has not been read (see previous warning).
   ************* Fatal error -- final processing.  Program exited before simulations began.  See previous error messages.
   *************
   ************* ===== Final Error Summary =====
   ************* The following error categories occurred.  Consider correcting or noting.
   ************* Nominally Unused Constructions
   ************* ..The nominally unused constructions warning is provided to alert you to potential conditions that can cause
   ************* ..extra time during simulation. Each construction is calculated by the algorithm indicated in the HeatBalanceAlgorithm
   ************* ..object. You may remove the constructions indicated (when you use the DisplayExtraWarnings option).
   *************
   ************* EnergyPlus Warmup Error Summary. During Warmup: 0 Warning; 0 Severe Errors.
   ************* EnergyPlus Sizing Error Summary. During Sizing: 3 Warning; 50 Severe Errors.
   ************* EnergyPlus Terminated--Fatal Error Detected. 9 Warning; 50 Severe Errors; Elapsed Time=00hr 00min  0.13sec
