Program Version,EnergyPlus, Version 9.4.0-998c4b761e, YMD=2025.11.25 08:40
