Program Version,EnergyPlus, Version 25.1.0-68a4a7c774, YMD=2025.12.04 14:17,
   ************* Beginning Zone Sizing Calculations
   ** Warning ** GetHTSurfaceData: Surfaces with interface to Ground found but no "Ground Temperatures" were input.
   **   ~~~   ** Found first in surface=SURFACE 1
   **   ~~~   ** Defaults, constant throughout the year of (18.0) will be used.
   ** Warning ** CheckUsedConstructions: There are 2 nominally unused constructions in input.
   **   ~~~   ** For explicit details on each unused construction, use Output:Diagnostics,DisplayExtraWarnings;
   ** Warning ** PEOPLE="FLOOR_1 RESIDENTIAL LIVING OCCUPANTS", Air velocity is beyond the reasonable range (0.1,0.5) for thermal comfort control.
   **   ~~~   **  During Warmup & Sizing, Environment=SEVILLA ANN CLG .4% CONDNS DB=>MWB, at Simulation time=07/21 00:00 - 00:10
   ** Warning ** PEOPLE="FLOOR_2 RESIDENTIAL LIVING OCCUPANTS", Air velocity is beyond the reasonable range (0.1,0.5) for thermal comfort control.
   **   ~~~   **  During Warmup & Sizing, Environment=SEVILLA ANN CLG .4% CONDNS DB=>MWB, at Simulation time=07/21 00:00 - 00:10
   ** Warning ** SetUpZoneSizingArrays: Requested Sizing for Zone="FLOOR_1_ZONE", Zone has no thermostat (ref: ZoneControl:Thermostat, et al)
   ** Warning ** SetUpZoneSizingArrays: Requested Sizing for Zone="FLOOR_2_ZONE", Zone has no thermostat (ref: ZoneControl:Thermostat, et al)
   ** Severe  ** UpdateZoneSizing: Heating supply air temperature (calculated) within 2C of zone temperature
   **   ~~~   ** ...check zone thermostat set point and design supply air temperatures
   **   ~~~   ** ...zone name = FLOOR_1_ZONE
   **   ~~~   ** ...design heating load         = 4608.86 W
   **   ~~~   ** ...thermostat set point temp   = 37.762 C
   **   ~~~   ** ...zone temperature            = 39.579 C
   **   ~~~   ** ...supply air temperature      = 40.000 C
   **   ~~~   ** ...temperature difference      = 0.42087 C
   **   ~~~   ** ...calculated volume flow rate = 7.62615 m3/s
   **   ~~~   ** ...calculated mass flow rate   = 9.15054 kg/s
   ** Severe  ** UpdateZoneSizing: Heating supply air temperature (calculated) within 2C of zone temperature
   **   ~~~   ** ...check zone thermostat set point and design supply air temperatures
   **   ~~~   ** ...zone name = FLOOR_2_ZONE
   **   ~~~   ** ...design heating load         = 4573.57 W
   **   ~~~   ** ...thermostat set point temp   = 37.774 C
   **   ~~~   ** ...zone temperature            = 39.571 C
   **   ~~~   ** ...supply air temperature      = 40.000 C
   **   ~~~   ** ...temperature difference      = 0.42944 C
   **   ~~~   ** ...calculated volume flow rate = 7.42573 m3/s
   **   ~~~   ** ...calculated mass flow rate   = 8.91005 kg/s
   ** Warning ** GetVRFInput: AirConditioner:VariableRefrigerantFlow="VRF SYSTEM" curve values
   **   ~~~   ** ... Cooling Capacity Ratio Modifier Function of Low Temperature Curve Name = VRF SYSTEM VRFCOOLCAPFT output is not equal to 1.0 (+ or - 10%) at rated conditions.
   **   ~~~   ** ... Curve output at rated conditions = 1.136
   ************* Beginning Plant Sizing Calculations
   ************* Testing Individual Branch Integrity
   ************* All Branches passed integrity testing
   ************* Testing Individual Supply Air Path Integrity
   ************* All Supply Air Paths passed integrity testing
   ************* Testing Individual Return Air Path Integrity
   ************* All Return Air Paths passed integrity testing
   ************* No node connection errors were found.
   ** Severe  ** Invalid Output:Variable or Output:Meter Index Key Name =PEOPLE FLOOR_1 RESIDENTIAL LIVING OCCUPANTS
   **   ~~~   ** For Output:Variable or Output:Meter = ZONE THERMAL COMFORT FANGER MODEL PMV
   **   ~~~   ** Entered in EnergyManagementSystem:Sensor=PMV_FLOOR_1_RESIDENTIAL_LIVING_OCCUPANTS
   **   ~~~   ** Unique Key Name not found.
   ** Severe  ** Invalid Output:Variable or Output:Meter Index Key Name =PEOPLE FLOOR_2 RESIDENTIAL LIVING OCCUPANTS
   **   ~~~   ** For Output:Variable or Output:Meter = ZONE THERMAL COMFORT FANGER MODEL PMV
   **   ~~~   ** Entered in EnergyManagementSystem:Sensor=PMV_FLOOR_2_RESIDENTIAL_LIVING_OCCUPANTS
   **   ~~~   ** Unique Key Name not found.
   **  Fatal  ** Errors found in processing Energy Management System input. Preceding condition causes termination.
   ...Summary of Errors that led to program termination:
   ..... Reference severe error count=4
   ..... Last severe error=Invalid Output:Variable or Output:Meter Index Key Name =PEOPLE FLOOR_2 RESIDENTIAL LIVING OCCUPANTS
   ************* Warning:  Node connection errors not checked - most system input has not been read (see previous warning).
   ************* Fatal error -- final processing.  Program exited before simulations began.  See previous error messages.
   *************
   ************* ===== Recurring Surface Error Summary =====
   ************* The following surface error messages occurred.
   *************
   ************* Base Surface does not surround subsurface errors occurring...
   ************* Check that the GlobalGeometryRules object is expressing the proper starting corner and direction [CounterClockwise/Clockwise]
   *************
   ** Warning ** Base surface does not surround subsurface (CHKSBS), Overlap Status=Partial-Overlap
   **   ~~~   **   The base surround errors occurred 1 times.
   **   ~~~   ** Surface "SURFACE 2_DOOR" overlaps SubSurface "ENTRY DOOR"
   *************
   **   ~~~   **   The base surround errors occurred 1 times (total).
   *************
   *************
   ************* ===== Recurring Error Summary =====
   ************* The following recurring error messages occurred.
   *************
   *************  ** Warning ** PEOPLE="FLOOR_1 RESIDENTIAL LIVING OCCUPANTS",Air velocity is still beyond the reasonable range (0.1,0.5)
   *************  **   ~~~   **   This error occurred 62041 total times;
   *************  **   ~~~   **   during Warmup 48582 times;
   *************  **   ~~~   **   during Sizing 61698 times.
   *************  **   ~~~   **   Max=1.000000 [m/s]  Min=1.000000 [m/s]
   *************
   *************  ** Warning ** PEOPLE="FLOOR_2 RESIDENTIAL LIVING OCCUPANTS",Air velocity is still beyond the reasonable range (0.1,0.5)
   *************  **   ~~~   **   This error occurred 62049 total times;
   *************  **   ~~~   **   during Warmup 48587 times;
   *************  **   ~~~   **   during Sizing 61706 times.
   *************  **   ~~~   **   Max=1.000000 [m/s]  Min=1.000000 [m/s]
   *************
   *************
   ************* ===== Final Error Summary =====
   ************* The following error categories occurred.  Consider correcting or noting.
   ************* Nominally Unused Constructions
   ************* ..The nominally unused constructions warning is provided to alert you to potential conditions that can cause
   ************* ..extra time during simulation. Each construction is calculated by the algorithm indicated in the HeatBalanceAlgorithm
   ************* ..object. You may remove the constructions indicated (when you use the DisplayExtraWarnings option).
   *************
   ************* EnergyPlus Warmup Error Summary. During Warmup: 0 Warning; 0 Severe Errors.
   ************* EnergyPlus Sizing Error Summary. During Sizing: 5 Warning; 2 Severe Errors.
   ************* EnergyPlus Terminated--Fatal Error Detected. 124096 Warning; 4 Severe Errors; Elapsed Time=00hr 00min  0.77sec
