Program Version,EnergyPlus, Version 25.1.0-68a4a7c774, YMD=2025.12.13 08:06,
   ************* Beginning Zone Sizing Calculations
   ** Warning ** GetHTSurfaceData: Surfaces with interface to Ground found but no "Ground Temperatures" were input.
   **   ~~~   ** Found first in surface=SURFACE 1
   **   ~~~   ** Defaults, constant throughout the year of (18.0) will be used.
   ** Warning ** CheckUsedConstructions: There are 2 nominally unused constructions in input.
   **   ~~~   ** For explicit details on each unused construction, use Output:Diagnostics,DisplayExtraWarnings;
   ** Warning ** SetUpZoneSizingArrays: Requested Sizing for Zone="FLOOR_1_ZONE", Zone has no thermostat (ref: ZoneControl:Thermostat, et al)
   ** Warning ** SetUpZoneSizingArrays: Requested Sizing for Zone="FLOOR_2_ZONE", Zone has no thermostat (ref: ZoneControl:Thermostat, et al)
   ** Warning ** GetVRFInput: AirConditioner:VariableRefrigerantFlow="VRF SYSTEM" curve values
   **   ~~~   ** ... Cooling Capacity Ratio Modifier Function of Low Temperature Curve Name = VRF SYSTEM VRFCOOLCAPFT output is not equal to 1.0 (+ or - 10%) at rated conditions.
   **   ~~~   ** ... Curve output at rated conditions = 1.136
   ************* Beginning Plant Sizing Calculations
   ************* Testing Individual Branch Integrity
   ************* All Branches passed integrity testing
   ************* Testing Individual Supply Air Path Integrity
   ************* All Supply Air Paths passed integrity testing
   ************* Testing Individual Return Air Path Integrity
   ************* All Return Air Paths passed integrity testing
   ************* No node connection errors were found.
   ************* Beginning Simulation
   ** Warning ** More than 4% of time (1.0 hours) uncomfortable in one or more zones 
   **   ~~~   ** Based on ASHRAE 55-2004 graph (Section 5.2.1.1)
   **   ~~~   ** During SizingPeriod Environment [01/21 - 01/21]: SEVILLA ANN HUM_N 99.6% CONDNS DP=>MCDB
   **   ~~~   ** 156.7 hours were uncomfortable in zone: FLOOR_1_ZONE
   **   ~~~   ** 156.7 hours were uncomfortable in zone: FLOOR_2_ZONE
   ** Warning ** AirConditioner:VariableRefrigerantFlow "VRF SYSTEM".
   **   ~~~   ** ...InitVRF: VRF Heat Pump Min/Max Operating Temperature in Heating Mode Limits have been exceeded and VRF system is disabled.
   **   ~~~   ** ... Outdoor Unit Inlet Air Temperature             = 31.333
   **   ~~~   ** ... Heating Minimum Outdoor Unit Inlet Temperature = -19.999
   **   ~~~   ** ... Heating Maximum Outdoor Unit Inlet Temperature = 30.000
   **   ~~~   ** ... Check VRF Heat Pump Min/Max Outdoor Temperature in Heating Mode limits.
   **   ~~~   **  Environment=RUN PERIOD 1, at Simulation time=07/11 22:00 - 22:10
   ** Warning ** More than 4% of time (350.4 hours) uncomfortable in one or more zones 
   **   ~~~   ** Based on ASHRAE 55-2004 graph (Section 5.2.1.1)
   **   ~~~   ** During Environment [01/01/2006 - 12/31/2006]: RUN PERIOD 1
   **   ~~~   ** 8601.2 hours were uncomfortable in zone: FLOOR_1_ZONE
   **   ~~~   ** 8600.8 hours were uncomfortable in zone: FLOOR_2_ZONE
   ** Warning ** The resource referenced by LifeCycleCost:UsePriceEscalation= "U.S. AVG  COMMERCIAL-ELECTRICITY" has no energy cost. 
   **   ~~~   ** ... It is likely that the wrong resource is used. The resource should match the meter used in Utility:Tariff.
   ** Warning ** The resource referenced by LifeCycleCost:UsePriceEscalation= "U.S. AVG  COMMERCIAL-DISTILLATE OIL" has no energy cost. 
   **   ~~~   ** ... It is likely that the wrong resource is used. The resource should match the meter used in Utility:Tariff.
   ** Warning ** The resource referenced by LifeCycleCost:UsePriceEscalation= "U.S. AVG  COMMERCIAL-RESIDUAL OIL" has no energy cost. 
   **   ~~~   ** ... It is likely that the wrong resource is used. The resource should match the meter used in Utility:Tariff.
   ** Warning ** The resource referenced by LifeCycleCost:UsePriceEscalation= "U.S. AVG  COMMERCIAL-NATURAL GAS" has no energy cost. 
   **   ~~~   ** ... It is likely that the wrong resource is used. The resource should match the meter used in Utility:Tariff.
   ** Warning ** The resource referenced by LifeCycleCost:UsePriceEscalation= "U.S. AVG  COMMERCIAL-COAL" has no energy cost. 
   **   ~~~   ** ... It is likely that the wrong resource is used. The resource should match the meter used in Utility:Tariff.
   ************* Simulation Error Summary *************
   ** Warning ** The following Report Variables were requested but not generated -- check.rdd file
   **   ~~~   ** Either the IDF did not contain these elements, the variable name is misspelled,
   **   ~~~   ** or the requested variable is an advanced output which requires Output : Diagnostics, DisplayAdvancedReportVariables;
   ************* Key=*, VarName=HEATING COIL TOTAL HEATING ENERGY, Frequency=Hourly
   ************* Key=*, VarName=HEATING COIL TOTAL HEATING RATE, Frequency=Hourly
   ************* Key=*, VarName=FACILITY TOTAL HVAC ELECTRIC DEMAND POWER, Frequency=Hourly
   ************* Key=*, VarName=AFN SURFACE VENTING WINDOW OR DOOR OPENING FACTOR, Frequency=Hourly
   ************* Key=*, VarName=AFN ZONE INFILTRATION AIR CHANGE RATE, Frequency=Hourly
   ************* Key=*, VarName=AFN ZONE INFILTRATION VOLUME, Frequency=Hourly
   ************* Key=*, VarName=AFN ZONE VENTILATION AIR CHANGE RATE, Frequency=Hourly
   ************* Key=*, VarName=AFN ZONE VENTILATION VOLUME, Frequency=Hourly
   ************* There are 8 unused schedules in input.
   ************* Use Output:Diagnostics,DisplayUnusedSchedules; to see them.
   *************
   ************* ===== Recurring Surface Error Summary =====
   ************* The following surface error messages occurred.
   *************
   ************* Base Surface does not surround subsurface errors occurring...
   ************* Check that the GlobalGeometryRules object is expressing the proper starting corner and direction [CounterClockwise/Clockwise]
   *************
   ** Warning ** Base surface does not surround subsurface (CHKSBS), Overlap Status=Partial-Overlap
   **   ~~~   **   The base surround errors occurred 1 times.
   **   ~~~   ** Surface "SURFACE 2_DOOR" overlaps SubSurface "ENTRY DOOR"
   *************
   **   ~~~   **   The base surround errors occurred 1 times (total).
   *************
   *************
   ************* ===== Recurring Error Summary =====
   ************* The following recurring error messages occurred.
   *************
   *************  ** Warning ** AirConditioner:VariableRefrigerantFlow "VRF SYSTEM" -- Exceeded VRF Heat Pump min/max heating temperature limit error continues...
   *************  **   ~~~   **   This error occurred 155 total times;
   *************  **   ~~~   **   during Warmup 0 times;
   *************  **   ~~~   **   during Sizing 0 times.
   *************  **   ~~~   **   Max=31.500000  Min=30.066667
   *************
   *************
   ************* ===== Final Error Summary =====
   ************* The following error categories occurred.  Consider correcting or noting.
   ************* Nominally Unused Constructions
   ************* ..The nominally unused constructions warning is provided to alert you to potential conditions that can cause
   ************* ..extra time during simulation. Each construction is calculated by the algorithm indicated in the HeatBalanceAlgorithm
   ************* ..object. You may remove the constructions indicated (when you use the DisplayExtraWarnings option).
   *************
   ************* EnergyPlus Warmup Error Summary. During Warmup: 0 Warning; 0 Severe Errors.
   ************* EnergyPlus Sizing Error Summary. During Sizing: 5 Warning; 0 Severe Errors.
   ************* EnergyPlus Completed Successfully-- 168 Warning; 0 Severe Errors; Elapsed Time=00hr 00min 11.64sec
