Program Version,EnergyPlus, Version 25.1.0-68a4a7c774, YMD=2025.12.04 14:31,
   ************* Beginning Zone Sizing Calculations
   ** Warning ** GetHTSurfaceData: Surfaces with interface to Ground found but no "Ground Temperatures" were input.
   **   ~~~   ** Found first in surface=SURFACE 1
   **   ~~~   ** Defaults, constant throughout the year of (18.0) will be used.
   ** Warning ** CheckUsedConstructions: There are 2 nominally unused constructions in input.
   **   ~~~   ** For explicit details on each unused construction, use Output:Diagnostics,DisplayExtraWarnings;
   ** Warning ** PEOPLE="FLOOR_1 RESIDENTIAL LIVING OCCUPANTS", Air velocity is beyond the reasonable range (0.1,0.5) for thermal comfort control.
   **   ~~~   **  During Warmup & Sizing, Environment=SEVILLA ANN CLG .4% CONDNS DB=>MWB, at Simulation time=07/21 00:00 - 00:10
   ** Warning ** PEOPLE="FLOOR_2 RESIDENTIAL LIVING OCCUPANTS", Air velocity is beyond the reasonable range (0.1,0.5) for thermal comfort control.
   **   ~~~   **  During Warmup & Sizing, Environment=SEVILLA ANN CLG .4% CONDNS DB=>MWB, at Simulation time=07/21 00:00 - 00:10
   ** Warning ** SetUpZoneSizingArrays: Requested Sizing for Zone="FLOOR_1_ZONE", Zone has no thermostat (ref: ZoneControl:Thermostat, et al)
   ** Warning ** SetUpZoneSizingArrays: Requested Sizing for Zone="FLOOR_2_ZONE", Zone has no thermostat (ref: ZoneControl:Thermostat, et al)
   ** Severe  ** UpdateZoneSizing: Heating supply air temperature (calculated) within 2C of zone temperature
   **   ~~~   ** ...check zone thermostat set point and design supply air temperatures
   **   ~~~   ** ...zone name = FLOOR_1_ZONE
   **   ~~~   ** ...design heating load         = 4608.86 W
   **   ~~~   ** ...thermostat set point temp   = 37.762 C
   **   ~~~   ** ...zone temperature            = 39.579 C
   **   ~~~   ** ...supply air temperature      = 40.000 C
   **   ~~~   ** ...temperature difference      = 0.42087 C
   **   ~~~   ** ...calculated volume flow rate = 7.62615 m3/s
   **   ~~~   ** ...calculated mass flow rate   = 9.15054 kg/s
   ** Severe  ** UpdateZoneSizing: Heating supply air temperature (calculated) within 2C of zone temperature
   **   ~~~   ** ...check zone thermostat set point and design supply air temperatures
   **   ~~~   ** ...zone name = FLOOR_2_ZONE
   **   ~~~   ** ...design heating load         = 4573.57 W
   **   ~~~   ** ...thermostat set point temp   = 37.774 C
   **   ~~~   ** ...zone temperature            = 39.571 C
   **   ~~~   ** ...supply air temperature      = 40.000 C
   **   ~~~   ** ...temperature difference      = 0.42944 C
   **   ~~~   ** ...calculated volume flow rate = 7.42573 m3/s
   **   ~~~   ** ...calculated mass flow rate   = 8.91005 kg/s
   ** Warning ** GetVRFInput: AirConditioner:VariableRefrigerantFlow="VRF SYSTEM" curve values
   **   ~~~   ** ... Cooling Capacity Ratio Modifier Function of Low Temperature Curve Name = VRF SYSTEM VRFCOOLCAPFT output is not equal to 1.0 (+ or - 10%) at rated conditions.
   **   ~~~   ** ... Curve output at rated conditions = 1.136
   ************* Beginning Plant Sizing Calculations
   ************* Testing Individual Branch Integrity
   ************* All Branches passed integrity testing
   ************* Testing Individual Supply Air Path Integrity
   ************* All Supply Air Paths passed integrity testing
   ************* Testing Individual Return Air Path Integrity
   ************* All Return Air Paths passed integrity testing
   ************* No node connection errors were found.
   ************* Beginning Simulation
   ** Warning ** More than 4% of time (1.0 hours) uncomfortable in one or more zones 
   **   ~~~   ** Based on ASHRAE 55-2004 graph (Section 5.2.1.1)
   **   ~~~   ** During SizingPeriod Environment [01/21 - 01/21]: SEVILLA ANN HUM_N 99.6% CONDNS DP=>MCDB
   **   ~~~   ** 168.0 hours were uncomfortable in zone: FLOOR_1_ZONE
   **   ~~~   ** 168.0 hours were uncomfortable in zone: FLOOR_2_ZONE
   ** Warning ** More than 4% of time (350.4 hours) uncomfortable in one or more zones 
   **   ~~~   ** Based on ASHRAE 55-2004 graph (Section 5.2.1.1)
   **   ~~~   ** During Environment [01/01/2006 - 12/31/2006]: RUN PERIOD 1
   **   ~~~   ** 8760.0 hours were uncomfortable in zone: FLOOR_1_ZONE
   **   ~~~   ** 8760.0 hours were uncomfortable in zone: FLOOR_2_ZONE
   ** Warning ** The resource referenced by LifeCycleCost:UsePriceEscalation= "U.S. AVG  COMMERCIAL-ELECTRICITY" has no energy cost. 
   **   ~~~   ** ... It is likely that the wrong resource is used. The resource should match the meter used in Utility:Tariff.
   ** Warning ** The resource referenced by LifeCycleCost:UsePriceEscalation= "U.S. AVG  COMMERCIAL-DISTILLATE OIL" has no energy cost. 
   **   ~~~   ** ... It is likely that the wrong resource is used. The resource should match the meter used in Utility:Tariff.
   ** Warning ** The resource referenced by LifeCycleCost:UsePriceEscalation= "U.S. AVG  COMMERCIAL-RESIDUAL OIL" has no energy cost. 
   **   ~~~   ** ... It is likely that the wrong resource is used. The resource should match the meter used in Utility:Tariff.
   ** Warning ** The resource referenced by LifeCycleCost:UsePriceEscalation= "U.S. AVG  COMMERCIAL-NATURAL GAS" has no energy cost. 
   **   ~~~   ** ... It is likely that the wrong resource is used. The resource should match the meter used in Utility:Tariff.
   ** Warning ** The resource referenced by LifeCycleCost:UsePriceEscalation= "U.S. AVG  COMMERCIAL-COAL" has no energy cost. 
   **   ~~~   ** ... It is likely that the wrong resource is used. The resource should match the meter used in Utility:Tariff.
   ************* Simulation Error Summary *************
   ** Warning ** The following Report Variables were requested but not generated -- check.rdd file
   **   ~~~   ** Either the IDF did not contain these elements, the variable name is misspelled,
   **   ~~~   ** or the requested variable is an advanced output which requires Output : Diagnostics, DisplayAdvancedReportVariables;
   ************* Key=*, VarName=HEATING COIL TOTAL HEATING ENERGY, Frequency=Hourly
   ************* Key=*, VarName=HEATING COIL TOTAL HEATING RATE, Frequency=Hourly
   ************* Key=*, VarName=FACILITY TOTAL HVAC ELECTRIC DEMAND POWER, Frequency=Hourly
   ************* Key=*, VarName=AFN SURFACE VENTING WINDOW OR DOOR OPENING FACTOR, Frequency=Hourly
   ************* Key=*, VarName=AFN ZONE INFILTRATION AIR CHANGE RATE, Frequency=Hourly
   ************* Key=*, VarName=AFN ZONE INFILTRATION VOLUME, Frequency=Hourly
   ************* Key=*, VarName=AFN ZONE VENTILATION AIR CHANGE RATE, Frequency=Hourly
   ************* Key=*, VarName=AFN ZONE VENTILATION VOLUME, Frequency=Hourly
   ************* There are 9 unused schedules in input.
   ************* Use Output:Diagnostics,DisplayUnusedSchedules; to see them.
   *************
   ************* ===== Recurring Surface Error Summary =====
   ************* The following surface error messages occurred.
   *************
   ************* Base Surface does not surround subsurface errors occurring...
   ************* Check that the GlobalGeometryRules object is expressing the proper starting corner and direction [CounterClockwise/Clockwise]
   *************
   ** Warning ** Base surface does not surround subsurface (CHKSBS), Overlap Status=Partial-Overlap
   **   ~~~   **   The base surround errors occurred 1 times.
   **   ~~~   ** Surface "SURFACE 2_DOOR" overlaps SubSurface "ENTRY DOOR"
   *************
   **   ~~~   **   The base surround errors occurred 1 times (total).
   *************
   *************
   ************* ===== Recurring Error Summary =====
   ************* The following recurring error messages occurred.
   *************
   *************  ** Warning ** PEOPLE="FLOOR_1 RESIDENTIAL LIVING OCCUPANTS",Air velocity is still beyond the reasonable range (0.1,0.5)
   *************  **   ~~~   **   This error occurred 806438 total times;
   *************  **   ~~~   **   during Warmup 102443 times;
   *************  **   ~~~   **   during Sizing 61698 times.
   *************  **   ~~~   **   Max=1.000000 [m/s]  Min=1.000000 [m/s]
   *************
   *************  ** Warning ** PEOPLE="FLOOR_2 RESIDENTIAL LIVING OCCUPANTS",Air velocity is still beyond the reasonable range (0.1,0.5)
   *************  **   ~~~   **   This error occurred 806630 total times;
   *************  **   ~~~   **   during Warmup 102424 times;
   *************  **   ~~~   **   during Sizing 61706 times.
   *************  **   ~~~   **   Max=1.000000 [m/s]  Min=1.000000 [m/s]
   *************
   *************
   ************* ===== Final Error Summary =====
   ************* The following error categories occurred.  Consider correcting or noting.
   ************* Nominally Unused Constructions
   ************* ..The nominally unused constructions warning is provided to alert you to potential conditions that can cause
   ************* ..extra time during simulation. Each construction is calculated by the algorithm indicated in the HeatBalanceAlgorithm
   ************* ..object. You may remove the constructions indicated (when you use the DisplayExtraWarnings option).
   *************
   ************* EnergyPlus Warmup Error Summary. During Warmup: 0 Warning; 0 Severe Errors.
   ************* EnergyPlus Sizing Error Summary. During Sizing: 5 Warning; 2 Severe Errors.
   ************* EnergyPlus Completed Successfully-- 1613081 Warning; 2 Severe Errors; Elapsed Time=00hr 00min 27.48sec
