Program Version,EnergyPlus, Version 9.4.0-998c4b761e, YMD=2025.11.24 08:05,
   ** Severe  ** <root>[ZoneControl:Thermostat:ThermalComfort][BLOCK1:ZONE1 Comfort Control] - Missing required property 'thermal_comfort_control_1_name'.
   ** Severe  ** <root>[ZoneControl:Thermostat:ThermalComfort][BLOCK1:ZONE1 Comfort Control] - Missing required property 'thermal_comfort_control_1_object_type'.
   **  Fatal  ** Errors occurred on processing input file. Preceding condition(s) cause termination.
   ...Summary of Errors that led to program termination:
   ..... Reference severe error count=2
   ..... Last severe error=<root>[ZoneControl:Thermostat:ThermalComfort][BLOCK1:ZONE1 Comfort Control] - Missing required property 'thermal_comfort_control_1_object_type'.
   ************* Warning:  Node connection errors not checked - most system input has not been read (see previous warning).
   ************* Fatal error -- final processing.  Program exited before simulations began.  See previous error messages.
   ************* EnergyPlus Warmup Error Summary. During Warmup: 0 Warning; 0 Severe Errors.
   ************* EnergyPlus Sizing Error Summary. During Sizing: 0 Warning; 0 Severe Errors.
   ************* EnergyPlus Terminated--Fatal Error Detected. 0 Warning; 2 Severe Errors; Elapsed Time=00hr 00min  0.19sec
